Version 4
SHEET 1 880 680
WIRE 352 192 -16 192
WIRE -16 224 -16 192
WIRE 256 208 80 208
WIRE 352 208 352 192
WIRE 80 224 80 208
WIRE 288 224 176 224
WIRE 320 224 288 224
WIRE -16 240 -16 224
WIRE 80 240 80 224
WIRE 176 240 176 224
WIRE 416 240 384 240
WIRE 320 256 288 256
WIRE 256 304 256 208
WIRE 352 304 352 272
WIRE 352 304 256 304
WIRE 288 320 288 256
WIRE -16 352 -16 320
WIRE 80 352 80 320
WIRE 80 352 -16 352
WIRE 176 352 176 320
WIRE 176 352 80 352
WIRE -16 416 -16 352
FLAG -16 416 0
FLAG 288 320 0
FLAG 416 240 OUT
IOPIN 416 240 Out
FLAG -16 224 VP
FLAG 80 224 VN
FLAG 288 224 IN
SYMBOL OpAmps/ADA4817 352 176 R0
SYMATTR InstName U1
SYMBOL voltage -16 224 R0
SYMATTR InstName V1
SYMATTR Value 15
SYMBOL voltage 80 224 R0
SYMATTR InstName V2
SYMATTR Value -15
SYMBOL voltage 176 224 R0
WINDOW 123 24 118 Left 2
WINDOW 3 6 105 Left 2
SYMATTR InstName V3
SYMATTR Value SINE()
